318
Generated with GEOM code
C          -17.92606907          -9.21700899           0.00000000
C          -16.69804107          -9.92599299           0.00000000
C          -15.47001407          -9.21700899           0.00000000
C          -14.24198607          -9.92599299           0.00000000
C          -13.01395907          -9.21700899           0.00000000
C          -11.78593207          -9.92599299           0.00000000
C          -10.55790407          -9.21700899           0.00000000
C           -9.32987707          -9.92599299           0.00000000
C           -8.10188007          -9.21700899           0.00000000
C           -6.87385307          -9.92599299           0.00000000
C           -5.64582607          -9.21700899           0.00000000
C           -4.41779807          -9.92599299           0.00000000
C           -3.18977107          -9.21700899           0.00000000
C           -1.96174407          -9.92599299           0.00000000
C           -0.73371607          -9.21700899           0.00000000
C            0.49431093          -9.92599299           0.00000000
C            1.72233793          -9.21700899           0.00000000
C            2.95033493          -9.92599299           0.00000000
C            4.17836293          -9.21700899           0.00000000
C            5.40638993          -9.92599299           0.00000000
C            6.63441693          -9.21700899           0.00000000
C            7.86244493          -9.92599299           0.00000000
C            9.09047193          -9.21700899           0.00000000
C           10.31849893          -9.92599299           0.00000000
C           11.54652693          -9.21700899           0.00000000
C           12.77452393          -9.92599299           0.00000000
C           14.00255093          -9.21700899           0.00000000
C           15.23057793          -9.92599299           0.00000000
C           16.45860593          -9.21700899           0.00000000
C           17.68663293          -9.92599299           0.00000000
C           18.91465993          -9.21700899           0.00000000
C          -17.92606907          -7.79900999           0.00000000
C          -19.15409607          -7.08999499           0.00000000
C          -19.15409607          -5.67199599           0.00000000
C          -17.92606907          -4.96301099           0.00000000
C          -15.47001407          -7.79900999           0.00000000
C          -16.69804107          -7.08999499           0.00000000
C          -16.69804107          -5.67199599           0.00000000
C          -15.47001407          -4.96301099           0.00000000
C          -13.01395907          -7.79900999           0.00000000
C          -14.24198607          -7.08999499           0.00000000
C          -14.24198607          -5.67199599           0.00000000
C          -13.01395907          -4.96301099           0.00000000
C          -10.55790407          -7.79900999           0.00000000
C          -11.78593207          -7.08999499           0.00000000
C          -11.78593207          -5.67199599           0.00000000
C          -10.55790407          -4.96301099           0.00000000
C           -8.10188007          -7.79900999           0.00000000
C           -9.32987707          -7.08999499           0.00000000
C           -9.32987707          -5.67199599           0.00000000
C           -8.10188007          -4.96301099           0.00000000
C           -5.64582607          -7.79900999           0.00000000
C           -6.87385307          -7.08999499           0.00000000
C           -6.87385307          -5.67199599           0.00000000
C           -5.64582607          -4.96301099           0.00000000
C           -3.18977107          -7.79900999           0.00000000
C           -4.41779807          -7.08999499           0.00000000
C           -4.41779807          -5.67199599           0.00000000
C           -3.18977107          -4.96301099           0.00000000
C           -0.73371607          -7.79900999           0.00000000
C           -1.96174407          -7.08999499           0.00000000
C           -1.96174407          -5.67199599           0.00000000
C           -0.73371607          -4.96301099           0.00000000
C            1.72233793          -7.79900999           0.00000000
C            0.49431093          -7.08999499           0.00000000
C            0.49431093          -5.67199599           0.00000000
C            1.72233793          -4.96301099           0.00000000
C            4.17836293          -7.79900999           0.00000000
C            2.95033493          -7.08999499           0.00000000
C            2.95033493          -5.67199599           0.00000000
C            4.17836293          -4.96301099           0.00000000
C            6.63441693          -7.79900999           0.00000000
C            5.40638993          -7.08999499           0.00000000
C            5.40638993          -5.67199599           0.00000000
C            6.63441693          -4.96301099           0.00000000
C            9.09047193          -7.79900999           0.00000000
C            7.86244493          -7.08999499           0.00000000
C            7.86244493          -5.67199599           0.00000000
C            9.09047193          -4.96301099           0.00000000
C           11.54652693          -7.79900999           0.00000000
C           10.31849893          -7.08999499           0.00000000
C           10.31849893          -5.67199599           0.00000000
C           11.54652693          -4.96301099           0.00000000
C           14.00255093          -7.79900999           0.00000000
C           12.77452393          -7.08999499           0.00000000
C           12.77452393          -5.67199599           0.00000000
C           14.00255093          -4.96301099           0.00000000
C           16.45860593          -7.79900999           0.00000000
C           15.23057793          -7.08999499           0.00000000
C           15.23057793          -5.67199599           0.00000000
C           16.45860593          -4.96301099           0.00000000
C           18.91465993          -7.79900999           0.00000000
C           17.68663293          -7.08999499           0.00000000
C           17.68663293          -5.67199599           0.00000000
C           18.91465993          -4.96301099           0.00000000
C          -17.92606907          -3.54501199           0.00000000
C          -19.15409607          -2.83599699           0.00000000
C          -19.15409607          -1.41799799           0.00000000
C          -17.92606907          -0.70901299           0.00000000
C          -15.47001407          -3.54501199           0.00000000
C          -16.69804107          -2.83599699           0.00000000
C          -16.69804107          -1.41799799           0.00000000
C          -15.47001407          -0.70901299           0.00000000
C          -13.01395907          -3.54501199           0.00000000
C          -14.24198607          -2.83599699           0.00000000
C          -14.24198607          -1.41799799           0.00000000
C          -13.01395907          -0.70901299           0.00000000
C          -10.55790407          -3.54501199           0.00000000
C          -11.78593207          -2.83599699           0.00000000
C          -11.78593207          -1.41799799           0.00000000
C          -10.55790407          -0.70901299           0.00000000
C           -8.10188007          -3.54501199           0.00000000
C           -9.32987707          -2.83599699           0.00000000
C           -9.32987707          -1.41799799           0.00000000
C           -8.10188007          -0.70901299           0.00000000
C           -5.64582607          -3.54501199           0.00000000
C           -6.87385307          -2.83599699           0.00000000
C           -6.87385307          -1.41799799           0.00000000
C           -5.64582607          -0.70901299           0.00000000
C           -3.18977107          -3.54501199           0.00000000
C           -4.41779807          -2.83599699           0.00000000
C           -4.41779807          -1.41799799           0.00000000
C           -3.18977107          -0.70901299           0.00000000
C           -0.73371607          -3.54501199           0.00000000
C           -1.96174407          -2.83599699           0.00000000
C           -1.96174407          -1.41799799           0.00000000
C           -0.73371607          -0.70901299           0.00000000
C            1.72233793          -3.54501199           0.00000000
C            0.49431093          -2.83599699           0.00000000
C            0.49431093          -1.41799799           0.00000000
C            1.72233793          -0.70901299           0.00000000
C            4.17836293          -3.54501199           0.00000000
C            2.95033493          -2.83599699           0.00000000
C            2.95033493          -1.41799799           0.00000000
C            4.17836293          -0.70901299           0.00000000
C            6.63441693          -3.54501199           0.00000000
C            5.40638993          -2.83599699           0.00000000
C            5.40638993          -1.41799799           0.00000000
C            6.63441693          -0.70901299           0.00000000
C            9.09047193          -3.54501199           0.00000000
C            7.86244493          -2.83599699           0.00000000
C            7.86244493          -1.41799799           0.00000000
C            9.09047193          -0.70901299           0.00000000
C           11.54652693          -3.54501199           0.00000000
C           10.31849893          -2.83599699           0.00000000
C           10.31849893          -1.41799799           0.00000000
C           11.54652693          -0.70901299           0.00000000
C           14.00255093          -3.54501199           0.00000000
C           12.77452393          -2.83599699           0.00000000
C           12.77452393          -1.41799799           0.00000000
C           14.00255093          -0.70901299           0.00000000
C           16.45860593          -3.54501199           0.00000000
C           15.23057793          -2.83599699           0.00000000
C           15.23057793          -1.41799799           0.00000000
C           16.45860593          -0.70901299           0.00000000
C           18.91465993          -3.54501199           0.00000000
C           17.68663293          -2.83599699           0.00000000
C           17.68663293          -1.41799799           0.00000000
C           18.91465993          -0.70901299           0.00000000
C          -17.92606907           0.70898601           0.00000000
C          -19.15409607           1.41800101           0.00000000
C          -19.15409607           2.83600001           0.00000000
C          -17.92606907           3.54501501           0.00000000
C          -15.47001407           0.70898601           0.00000000
C          -16.69804107           1.41800101           0.00000000
C          -16.69804107           2.83600001           0.00000000
C          -15.47001407           3.54501501           0.00000000
C          -13.01395907           0.70898601           0.00000000
C          -14.24198607           1.41800101           0.00000000
C          -14.24198607           2.83600001           0.00000000
C          -13.01395907           3.54501501           0.00000000
C          -10.55790407           0.70898601           0.00000000
C          -11.78593207           1.41800101           0.00000000
C          -11.78593207           2.83600001           0.00000000
C          -10.55790407           3.54501501           0.00000000
C           -8.10188007           0.70898601           0.00000000
C           -9.32987707           1.41800101           0.00000000
C           -9.32987707           2.83600001           0.00000000
C           -8.10188007           3.54501501           0.00000000
C           -5.64582607           0.70898601           0.00000000
C           -6.87385307           1.41800101           0.00000000
C           -6.87385307           2.83600001           0.00000000
C           -5.64582607           3.54501501           0.00000000
C           -3.18977107           0.70898601           0.00000000
C           -4.41779807           1.41800101           0.00000000
C           -4.41779807           2.83600001           0.00000000
C           -3.18977107           3.54501501           0.00000000
C           -0.73371607           0.70898601           0.00000000
C           -1.96174407           1.41800101           0.00000000
C           -1.96174407           2.83600001           0.00000000
C           -0.73371607           3.54501501           0.00000000
C            1.72233793           0.70898601           0.00000000
C            0.49431093           1.41800101           0.00000000
C            0.49431093           2.83600001           0.00000000
C            1.72233793           3.54501501           0.00000000
C            4.17836293           0.70898601           0.00000000
C            2.95033493           1.41800101           0.00000000
C            2.95033493           2.83600001           0.00000000
C            4.17836293           3.54501501           0.00000000
C            6.63441693           0.70898601           0.00000000
C            5.40638993           1.41800101           0.00000000
C            5.40638993           2.83600001           0.00000000
C            6.63441693           3.54501501           0.00000000
C            9.09047193           0.70898601           0.00000000
C            7.86244493           1.41800101           0.00000000
C            7.86244493           2.83600001           0.00000000
C            9.09047193           3.54501501           0.00000000
C           11.54652693           0.70898601           0.00000000
C           10.31849893           1.41800101           0.00000000
C           10.31849893           2.83600001           0.00000000
C           11.54652693           3.54501501           0.00000000
C           14.00255093           0.70898601           0.00000000
C           12.77452393           1.41800101           0.00000000
C           12.77452393           2.83600001           0.00000000
C           14.00255093           3.54501501           0.00000000
C           16.45860593           0.70898601           0.00000000
C           15.23057793           1.41800101           0.00000000
C           15.23057793           2.83600001           0.00000000
C           16.45860593           3.54501501           0.00000000
C           18.91465993           0.70898601           0.00000000
C           17.68663293           1.41800101           0.00000000
C           17.68663293           2.83600001           0.00000000
C           18.91465993           3.54501501           0.00000000
C          -17.92606907           4.96301401           0.00000000
C          -19.15409607           5.67199901           0.00000000
C          -19.15409607           7.08999801           0.00000000
C          -17.92606907           7.79901301           0.00000000
C          -15.47001407           4.96301401           0.00000000
C          -16.69804107           5.67199901           0.00000000
C          -16.69804107           7.08999801           0.00000000
C          -15.47001407           7.79901301           0.00000000
C          -13.01395907           4.96301401           0.00000000
C          -14.24198607           5.67199901           0.00000000
C          -14.24198607           7.08999801           0.00000000
C          -13.01395907           7.79901301           0.00000000
C          -10.55790407           4.96301401           0.00000000
C          -11.78593207           5.67199901           0.00000000
C          -11.78593207           7.08999801           0.00000000
C          -10.55790407           7.79901301           0.00000000
C           -8.10188007           4.96301401           0.00000000
C           -9.32987707           5.67199901           0.00000000
C           -9.32987707           7.08999801           0.00000000
C           -8.10188007           7.79901301           0.00000000
C           -5.64582607           4.96301401           0.00000000
C           -6.87385307           5.67199901           0.00000000
C           -6.87385307           7.08999801           0.00000000
C           -5.64582607           7.79901301           0.00000000
C           -3.18977107           4.96301401           0.00000000
C           -4.41779807           5.67199901           0.00000000
C           -4.41779807           7.08999801           0.00000000
C           -3.18977107           7.79901301           0.00000000
C           -0.73371607           4.96301401           0.00000000
C           -1.96174407           5.67199901           0.00000000
C           -1.96174407           7.08999801           0.00000000
C           -0.73371607           7.79901301           0.00000000
C            1.72233793           4.96301401           0.00000000
C            0.49431093           5.67199901           0.00000000
C            0.49431093           7.08999801           0.00000000
C            1.72233793           7.79901301           0.00000000
C            4.17836293           4.96301401           0.00000000
C            2.95033493           5.67199901           0.00000000
C            2.95033493           7.08999801           0.00000000
C            4.17836293           7.79901301           0.00000000
C            6.63441693           4.96301401           0.00000000
C            5.40638993           5.67199901           0.00000000
C            5.40638993           7.08999801           0.00000000
C            6.63441693           7.79901301           0.00000000
C            9.09047193           4.96301401           0.00000000
C            7.86244493           5.67199901           0.00000000
C            7.86244493           7.08999801           0.00000000
C            9.09047193           7.79901301           0.00000000
C           11.54652693           4.96301401           0.00000000
C           10.31849893           5.67199901           0.00000000
C           10.31849893           7.08999801           0.00000000
C           11.54652693           7.79901301           0.00000000
C           14.00255093           4.96301401           0.00000000
C           12.77452393           5.67199901           0.00000000
C           12.77452393           7.08999801           0.00000000
C           14.00255093           7.79901301           0.00000000
C           16.45860593           4.96301401           0.00000000
C           15.23057793           5.67199901           0.00000000
C           15.23057793           7.08999801           0.00000000
C           16.45860593           7.79901301           0.00000000
C           18.91465993           4.96301401           0.00000000
C           17.68663293           5.67199901           0.00000000
C           17.68663293           7.08999801           0.00000000
C           18.91465993           7.79901301           0.00000000
C          -17.92606907           9.21701201           0.00000000
C          -15.47001407           9.21701201           0.00000000
C          -16.69804107           9.92599601           0.00000000
C          -13.01395907           9.21701201           0.00000000
C          -14.24198607           9.92599601           0.00000000
C          -10.55790407           9.21701201           0.00000000
C          -11.78593207           9.92599601           0.00000000
C           -8.10188007           9.21701201           0.00000000
C           -9.32987707           9.92599601           0.00000000
C           -5.64582607           9.21701201           0.00000000
C           -6.87385307           9.92599601           0.00000000
C           -3.18977107           9.21701201           0.00000000
C           -4.41779807           9.92599601           0.00000000
C           -0.73371607           9.21701201           0.00000000
C           -1.96174407           9.92599601           0.00000000
C            1.72233793           9.21701201           0.00000000
C            0.49431093           9.92599601           0.00000000
C            4.17836293           9.21701201           0.00000000
C            2.95033493           9.92599601           0.00000000
C            6.63441693           9.21701201           0.00000000
C            5.40638993           9.92599601           0.00000000
C            9.09047193           9.21701201           0.00000000
C            7.86244493           9.92599601           0.00000000
C           11.54652693           9.21701201           0.00000000
C           10.31849893           9.92599601           0.00000000
C           14.00255093           9.21701201           0.00000000
C           12.77452393           9.92599601           0.00000000
C           16.45860593           9.21701201           0.00000000
C           15.23057793           9.92599601           0.00000000
C           18.91465993           9.21701201           0.00000000
C           17.68663293           9.92599601           0.00000000
