68
Generated with GEOM code
O          101.49492059           0.75101471          -0.33119706
O          103.66542059           1.39521471          -1.03899706
O          102.45582059          -1.62078529           0.89780294
O          105.01042059           3.55541471           0.31980294
O           98.75542059           1.38301471          -1.50529706
O           98.12172059          -3.63768529           0.69760294
O          103.76402059          -3.40278529          -1.53309706
O          104.24852059          -5.31728529           0.28880294
O           96.28262059           1.74661471          -1.16309706
O           95.67482059          -3.10988529           0.98000294
O           93.78582059           2.26651471          -0.90859706
N          102.71772059           4.30891471           1.85060294
C          101.02992059          -0.19708529          -1.28959706
C          102.05722059          -2.29228529          -0.29079706
C          102.06232059          -1.31568529          -1.46899706
C          100.67872059          -2.93758529          -0.11499706
C           99.68322059          -0.69858529          -0.83119706
C           99.52552059          -1.96948529          -0.25229706
C          102.28742059           1.76221471          -0.94699706
C          102.11722059           3.08111471          -0.19049706
C          102.80122059           3.01311471           1.17980294
C          104.26062059           2.56331471           1.02300294
C          104.31582059           1.24901471           0.23050294
C           98.56552059           0.14451471          -0.95669706
C          103.08882059          -3.36298529          -0.50559706
C           98.25002059          -2.38368529           0.16670294
C           97.30062059          -0.27378529          -0.52839706
C           97.14252059          -1.53878529           0.03200294
C          105.74622059           0.79691471          -0.04409706
C          103.24372059          -4.37788529           0.60700294
C           96.14222059           0.63141471          -0.67639706
C           95.81312059          -1.99848529           0.48410294
C           94.81132059           0.17131471          -0.23029706
C           94.65232059          -1.09798529           0.32930294
C           93.70382059           1.01611471          -0.37099706
C           93.38582059          -1.52308529           0.74810294
C           92.44342059           0.58861471           0.04730294
C           92.28472059          -0.67818529           0.60560294
C           94.04552059           3.34171471          -0.00919706
H          100.89412059           0.25721471          -2.28099706
H          101.82382059          -1.86558529          -2.39059706
H          103.06302059          -0.89428529          -1.60419706
H          100.62852059          -3.39308529           0.88200294
H          100.54302059          -3.72658529          -0.86689706
H          101.94442059           1.95401471          -1.97069706
H          101.05142059           3.30701471          -0.06449706
H          102.56382059           3.88981471          -0.78369706
H          102.27482059           2.27981471           1.80340294
H          104.72002059           2.43471471           2.01070294
H          103.81362059           0.46311471           0.80160294
H          102.19772059          -2.15288529           1.66860294
H          105.73922059          -0.18648529          -0.52799706
H          106.26002059           1.47241471          -0.73619706
H          106.32572059           0.72141471           0.88080294
H          101.74542059           4.61221471           1.89220294
H          103.21002059           5.01311471           1.30180294
H          102.31202059          -4.93118529           0.74070294
H          103.52072059          -3.88748529           1.54310294
H          105.95382059           3.36391471           0.45400294
H           99.66182059           1.68861471          -1.34829706
H           98.79662059          -4.23538529           0.34000294
H           93.23592059          -2.50598529           1.18650294
H          105.09512059          -4.83998529           0.25400294
H           91.57782059           1.23731471          -0.05949706
H           91.30232059          -1.00868529           0.93030294
H           93.13992059           3.57671471           0.55870294
H           94.32712059           4.22011471          -0.59639706
H           94.86182059           3.10401471           0.68080294
