397
Generated with GEOM code
C           -1.22801620         -24.81498523           0.00000000
C            0.00001080         -25.52400023           0.00000000
C            1.22803780         -24.81498523           0.00000000
C           -3.68407120         -20.56098723           0.00000000
C           -1.22801620         -23.39698623           0.00000000
C           -2.45604420         -22.68800123           0.00000000
C           -2.45604420         -21.27000223           0.00000000
C           -1.22801620         -20.56098723           0.00000000
C            1.22803780         -23.39698623           0.00000000
C            0.00001080         -22.68800123           0.00000000
C            0.00001080         -21.27000223           0.00000000
C            1.22803780         -20.56098723           0.00000000
C            2.45603480         -22.68800123           0.00000000
C            2.45603480         -21.27000223           0.00000000
C            3.68406280         -20.56098723           0.00000000
C           -6.14012620         -16.30702023           0.00000000
C           -3.68407120         -19.14298823           0.00000000
C           -4.91209820         -18.43400423           0.00000000
C           -4.91209820         -17.01600423           0.00000000
C           -3.68407120         -16.30702023           0.00000000
C           -1.22801620         -19.14298823           0.00000000
C           -2.45604420         -18.43400423           0.00000000
C           -2.45604420         -17.01600423           0.00000000
C           -1.22801620         -16.30702023           0.00000000
C            1.22803780         -19.14298823           0.00000000
C            0.00001080         -18.43400423           0.00000000
C            0.00001080         -17.01600423           0.00000000
C            1.22803780         -16.30702023           0.00000000
C            3.68406280         -19.14298823           0.00000000
C            2.45603480         -18.43400423           0.00000000
C            2.45603480         -17.01600423           0.00000000
C            3.68406280         -16.30702023           0.00000000
C            4.91208980         -18.43400423           0.00000000
C            4.91208980         -17.01600423           0.00000000
C            6.14011680         -16.30702023           0.00000000
C           -8.59618020         -12.05299223           0.00000000
C           -6.14012620         -14.88899023           0.00000000
C           -7.36815320         -14.18000623           0.00000000
C           -7.36815320         -12.76197623           0.00000000
C           -6.14012620         -12.05299223           0.00000000
C           -3.68407120         -14.88899023           0.00000000
C           -4.91209820         -14.18000623           0.00000000
C           -4.91209820         -12.76197623           0.00000000
C           -3.68407120         -12.05299223           0.00000000
C           -1.22801620         -14.88899023           0.00000000
C           -2.45604420         -14.18000623           0.00000000
C           -2.45604420         -12.76197623           0.00000000
C           -1.22801620         -12.05299223           0.00000000
C            1.22803780         -14.88899023           0.00000000
C            0.00001080         -14.18000623           0.00000000
C            0.00001080         -12.76197623           0.00000000
C            1.22803780         -12.05299223           0.00000000
C            3.68406280         -14.88899023           0.00000000
C            2.45603480         -14.18000623           0.00000000
C            2.45603480         -12.76197623           0.00000000
C            3.68406280         -12.05299223           0.00000000
C            6.14011680         -14.88899023           0.00000000
C            4.91208980         -14.18000623           0.00000000
C            4.91208980         -12.76197623           0.00000000
C            6.14011680         -12.05299223           0.00000000
C            7.36814480         -14.18000623           0.00000000
C            7.36814480         -12.76197623           0.00000000
C            8.59617180         -12.05299223           0.00000000
C          -11.05220420          -7.79902423           0.00000000
C           -8.59618020         -10.63502323           0.00000000
C           -9.82417720          -9.92597823           0.00000000
C           -9.82417720          -8.50800923           0.00000000
C           -8.59618020          -7.79902423           0.00000000
C           -6.14012620         -10.63502323           0.00000000
C           -7.36815320          -9.92597823           0.00000000
C           -7.36815320          -8.50800923           0.00000000
C           -6.14012620          -7.79902423           0.00000000
C           -3.68407120         -10.63502323           0.00000000
C           -4.91209820          -9.92597823           0.00000000
C           -4.91209820          -8.50800923           0.00000000
C           -3.68407120          -7.79902423           0.00000000
C           -1.22801620         -10.63502323           0.00000000
C           -2.45604420          -9.92597823           0.00000000
C           -2.45604420          -8.50800923           0.00000000
C           -1.22801620          -7.79902423           0.00000000
C            1.22803780         -10.63502323           0.00000000
C            0.00001080          -9.92597823           0.00000000
C            0.00001080          -8.50800923           0.00000000
C            1.22803780          -7.79902423           0.00000000
C            3.68406280         -10.63502323           0.00000000
C            2.45603480          -9.92597823           0.00000000
C            2.45603480          -8.50800923           0.00000000
C            3.68406280          -7.79902423           0.00000000
C            6.14011680         -10.63502323           0.00000000
C            4.91208980          -9.92597823           0.00000000
C            4.91208980          -8.50800923           0.00000000
C            6.14011680          -7.79902423           0.00000000
C            8.59617180         -10.63502323           0.00000000
C            7.36814480          -9.92597823           0.00000000
C            7.36814480          -8.50800923           0.00000000
C            8.59617180          -7.79902423           0.00000000
C            9.82419880          -9.92597823           0.00000000
C            9.82419880          -8.50800923           0.00000000
C           11.05222680          -7.79902423           0.00000000
C          -13.50825920          -3.54499623           0.00000000
C          -11.05220420          -6.38099523           0.00000000
C          -12.28023220          -5.67201023           0.00000000
C          -12.28023220          -4.25398023           0.00000000
C          -11.05220420          -3.54499623           0.00000000
C           -8.59618020          -6.38099523           0.00000000
C           -9.82417720          -5.67201023           0.00000000
C           -9.82417720          -4.25398023           0.00000000
C           -8.59618020          -3.54499623           0.00000000
C           -6.14012620          -6.38099523           0.00000000
C           -7.36815320          -5.67201023           0.00000000
C           -7.36815320          -4.25398023           0.00000000
C           -6.14012620          -3.54499623           0.00000000
C           -3.68407120          -6.38099523           0.00000000
C           -4.91209820          -5.67201023           0.00000000
C           -4.91209820          -4.25398023           0.00000000
C           -3.68407120          -3.54499623           0.00000000
C           -1.22801620          -6.38099523           0.00000000
C           -2.45604420          -5.67201023           0.00000000
C           -2.45604420          -4.25398023           0.00000000
C           -1.22801620          -3.54499623           0.00000000
C            1.22803780          -6.38099523           0.00000000
C            0.00001080          -5.67201023           0.00000000
C            0.00001080          -4.25398023           0.00000000
C            1.22803780          -3.54499623           0.00000000
C            3.68406280          -6.38099523           0.00000000
C            2.45603480          -5.67201023           0.00000000
C            2.45603480          -4.25398023           0.00000000
C            3.68406280          -3.54499623           0.00000000
C            6.14011680          -6.38099523           0.00000000
C            4.91208980          -5.67201023           0.00000000
C            4.91208980          -4.25398023           0.00000000
C            6.14011680          -3.54499623           0.00000000
C            8.59617180          -6.38099523           0.00000000
C            7.36814480          -5.67201023           0.00000000
C            7.36814480          -4.25398023           0.00000000
C            8.59617180          -3.54499623           0.00000000
C           11.05222680          -6.38099523           0.00000000
C            9.82419880          -5.67201023           0.00000000
C            9.82419880          -4.25398023           0.00000000
C           11.05222680          -3.54499623           0.00000000
C           12.28022380          -5.67201023           0.00000000
C           12.28022380          -4.25398023           0.00000000
C           13.50825080          -3.54499623           0.00000000
C          -15.96431420           0.70897077           0.00000000
C          -13.50825920          -2.12702723           0.00000000
C          -14.73628620          -1.41798223           0.00000000
C          -14.73628620          -0.00001323           0.00000000
C          -13.50825920           0.70897077           0.00000000
C          -11.05220420          -2.12702723           0.00000000
C          -12.28023220          -1.41798223           0.00000000
C          -12.28023220          -0.00001323           0.00000000
C          -11.05220420           0.70897077           0.00000000
C           -8.59618020          -2.12702723           0.00000000
C           -9.82417720          -1.41798223           0.00000000
C           -9.82417720          -0.00001323           0.00000000
C           -8.59618020           0.70897077           0.00000000
C           -6.14012620          -2.12702723           0.00000000
C           -7.36815320          -1.41798223           0.00000000
C           -7.36815320          -0.00001323           0.00000000
C           -6.14012620           0.70897077           0.00000000
C           -3.68407120          -2.12702723           0.00000000
C           -4.91209820          -1.41798223           0.00000000
C           -4.91209820          -0.00001323           0.00000000
C           -3.68407120           0.70897077           0.00000000
C           -1.22801620          -2.12702723           0.00000000
C           -2.45604420          -1.41798223           0.00000000
C           -2.45604420          -0.00001323           0.00000000
C           -1.22801620           0.70897077           0.00000000
C            1.22803780          -2.12702723           0.00000000
C            0.00001080          -1.41798223           0.00000000
C            0.00001080          -0.00001323           0.00000000
C            1.22803780           0.70897077           0.00000000
C            3.68406280          -2.12702723           0.00000000
C            2.45603480          -1.41798223           0.00000000
C            2.45603480          -0.00001323           0.00000000
C            3.68406280           0.70897077           0.00000000
C            6.14011680          -2.12702723           0.00000000
C            4.91208980          -1.41798223           0.00000000
C            4.91208980          -0.00001323           0.00000000
C            6.14011680           0.70897077           0.00000000
C            8.59617180          -2.12702723           0.00000000
C            7.36814480          -1.41798223           0.00000000
C            7.36814480          -0.00001323           0.00000000
C            8.59617180           0.70897077           0.00000000
C           11.05222680          -2.12702723           0.00000000
C            9.82419880          -1.41798223           0.00000000
C            9.82419880          -0.00001323           0.00000000
C           11.05222680           0.70897077           0.00000000
C           13.50825080          -2.12702723           0.00000000
C           12.28022380          -1.41798223           0.00000000
C           12.28022380          -0.00001323           0.00000000
C           13.50825080           0.70897077           0.00000000
C           14.73627780          -1.41798223           0.00000000
C           14.73627780          -0.00001323           0.00000000
C           15.96430580           0.70897077           0.00000000
C          -18.42036920           4.96299977           0.00000000
C          -15.96431420           2.12700077           0.00000000
C          -17.19234120           2.83598477           0.00000000
C          -17.19234120           4.25401477           0.00000000
C          -15.96431420           4.96299977           0.00000000
C          -13.50825920           2.12700077           0.00000000
C          -14.73628620           2.83598477           0.00000000
C          -14.73628620           4.25401477           0.00000000
C          -13.50825920           4.96299977           0.00000000
C          -11.05220420           2.12700077           0.00000000
C          -12.28023220           2.83598477           0.00000000
C          -12.28023220           4.25401477           0.00000000
C          -11.05220420           4.96299977           0.00000000
C           -8.59618020           2.12700077           0.00000000
C           -9.82417720           2.83598477           0.00000000
C           -9.82417720           4.25401477           0.00000000
C           -8.59618020           4.96299977           0.00000000
C           -6.14012620           2.12700077           0.00000000
C           -7.36815320           2.83598477           0.00000000
C           -7.36815320           4.25401477           0.00000000
C           -6.14012620           4.96299977           0.00000000
C           -3.68407120           2.12700077           0.00000000
C           -4.91209820           2.83598477           0.00000000
C           -4.91209820           4.25401477           0.00000000
C           -3.68407120           4.96299977           0.00000000
C           -1.22801620           2.12700077           0.00000000
C           -2.45604420           2.83598477           0.00000000
C           -2.45604420           4.25401477           0.00000000
C           -1.22801620           4.96299977           0.00000000
C            1.22803780           2.12700077           0.00000000
C            0.00001080           2.83598477           0.00000000
C            0.00001080           4.25401477           0.00000000
C            1.22803780           4.96299977           0.00000000
C            3.68406280           2.12700077           0.00000000
C            2.45603480           2.83598477           0.00000000
C            2.45603480           4.25401477           0.00000000
C            3.68406280           4.96299977           0.00000000
C            6.14011680           2.12700077           0.00000000
C            4.91208980           2.83598477           0.00000000
C            4.91208980           4.25401477           0.00000000
C            6.14011680           4.96299977           0.00000000
C            8.59617180           2.12700077           0.00000000
C            7.36814480           2.83598477           0.00000000
C            7.36814480           4.25401477           0.00000000
C            8.59617180           4.96299977           0.00000000
C           11.05222680           2.12700077           0.00000000
C            9.82419880           2.83598477           0.00000000
C            9.82419880           4.25401477           0.00000000
C           11.05222680           4.96299977           0.00000000
C           13.50825080           2.12700077           0.00000000
C           12.28022380           2.83598477           0.00000000
C           12.28022380           4.25401477           0.00000000
C           13.50825080           4.96299977           0.00000000
C           15.96430580           2.12700077           0.00000000
C           14.73627780           2.83598477           0.00000000
C           14.73627780           4.25401477           0.00000000
C           15.96430580           4.96299977           0.00000000
C           17.19233280           2.83598477           0.00000000
C           17.19233280           4.25401477           0.00000000
C           18.42035980           4.96299977           0.00000000
C          -20.87639320           9.21702777           0.00000000
C          -18.42036920           6.38102877           0.00000000
C          -19.64839620           7.09001377           0.00000000
C          -19.64839620           8.50798177           0.00000000
C          -18.42036920           9.21702777           0.00000000
C          -15.96431420           6.38102877           0.00000000
C          -17.19234120           7.09001377           0.00000000
C          -17.19234120           8.50798177           0.00000000
C          -15.96431420           9.21702777           0.00000000
C          -13.50825920           6.38102877           0.00000000
C          -14.73628620           7.09001377           0.00000000
C          -14.73628620           8.50798177           0.00000000
C          -13.50825920           9.21702777           0.00000000
C          -11.05220420           6.38102877           0.00000000
C          -12.28023220           7.09001377           0.00000000
C          -12.28023220           8.50798177           0.00000000
C          -11.05220420           9.21702777           0.00000000
C           -8.59618020           6.38102877           0.00000000
C           -9.82417720           7.09001377           0.00000000
C           -9.82417720           8.50798177           0.00000000
C           -8.59618020           9.21702777           0.00000000
C           -6.14012620           6.38102877           0.00000000
C           -7.36815320           7.09001377           0.00000000
C           -7.36815320           8.50798177           0.00000000
C           -6.14012620           9.21702777           0.00000000
C           -3.68407120           6.38102877           0.00000000
C           -4.91209820           7.09001377           0.00000000
C           -4.91209820           8.50798177           0.00000000
C           -3.68407120           9.21702777           0.00000000
C           -1.22801620           6.38102877           0.00000000
C           -2.45604420           7.09001377           0.00000000
C           -2.45604420           8.50798177           0.00000000
C           -1.22801620           9.21702777           0.00000000
C            1.22803780           6.38102877           0.00000000
C            0.00001080           7.09001377           0.00000000
C            0.00001080           8.50798177           0.00000000
C            1.22803780           9.21702777           0.00000000
C            3.68406280           6.38102877           0.00000000
C            2.45603480           7.09001377           0.00000000
C            2.45603480           8.50798177           0.00000000
C            3.68406280           9.21702777           0.00000000
C            6.14011680           6.38102877           0.00000000
C            4.91208980           7.09001377           0.00000000
C            4.91208980           8.50798177           0.00000000
C            6.14011680           9.21702777           0.00000000
C            8.59617180           6.38102877           0.00000000
C            7.36814480           7.09001377           0.00000000
C            7.36814480           8.50798177           0.00000000
C            8.59617180           9.21702777           0.00000000
C           11.05222680           6.38102877           0.00000000
C            9.82419880           7.09001377           0.00000000
C            9.82419880           8.50798177           0.00000000
C           11.05222680           9.21702777           0.00000000
C           13.50825080           6.38102877           0.00000000
C           12.28022380           7.09001377           0.00000000
C           12.28022380           8.50798177           0.00000000
C           13.50825080           9.21702777           0.00000000
C           15.96430580           6.38102877           0.00000000
C           14.73627780           7.09001377           0.00000000
C           14.73627780           8.50798177           0.00000000
C           15.96430580           9.21702777           0.00000000
C           18.42035980           6.38102877           0.00000000
C           17.19233280           7.09001377           0.00000000
C           17.19233280           8.50798177           0.00000000
C           18.42035980           9.21702777           0.00000000
C           19.64838780           7.09001377           0.00000000
C           19.64838780           8.50798177           0.00000000
C           20.87641480           9.21702777           0.00000000
C          -20.87639320          10.63499677           0.00000000
C          -22.10442020          11.34398077           0.00000000
C          -22.10442020          12.76201077           0.00000000
C          -20.87639320          13.47099477           0.00000000
C          -18.42036920          10.63499677           0.00000000
C          -19.64839620          11.34398077           0.00000000
C          -19.64839620          12.76201077           0.00000000
C          -18.42036920          13.47099477           0.00000000
C          -15.96431420          10.63499677           0.00000000
C          -17.19234120          11.34398077           0.00000000
C          -17.19234120          12.76201077           0.00000000
C          -15.96431420          13.47099477           0.00000000
C          -13.50825920          10.63499677           0.00000000
C          -14.73628620          11.34398077           0.00000000
C          -14.73628620          12.76201077           0.00000000
C          -13.50825920          13.47099477           0.00000000
C          -11.05220420          10.63499677           0.00000000
C          -12.28023220          11.34398077           0.00000000
C          -12.28023220          12.76201077           0.00000000
C          -11.05220420          13.47099477           0.00000000
C           -8.59618020          10.63499677           0.00000000
C           -9.82417720          11.34398077           0.00000000
C           -9.82417720          12.76201077           0.00000000
C           -8.59618020          13.47099477           0.00000000
C           -6.14012620          10.63499677           0.00000000
C           -7.36815320          11.34398077           0.00000000
C           -7.36815320          12.76201077           0.00000000
C           -6.14012620          13.47099477           0.00000000
C           -3.68407120          10.63499677           0.00000000
C           -4.91209820          11.34398077           0.00000000
C           -4.91209820          12.76201077           0.00000000
C           -3.68407120          13.47099477           0.00000000
C           -1.22801620          10.63499677           0.00000000
C           -2.45604420          11.34398077           0.00000000
C           -2.45604420          12.76201077           0.00000000
C           -1.22801620          13.47099477           0.00000000
C            1.22803780          10.63499677           0.00000000
C            0.00001080          11.34398077           0.00000000
C            0.00001080          12.76201077           0.00000000
C            1.22803780          13.47099477           0.00000000
C            3.68406280          10.63499677           0.00000000
C            2.45603480          11.34398077           0.00000000
C            2.45603480          12.76201077           0.00000000
C            3.68406280          13.47099477           0.00000000
C            6.14011680          10.63499677           0.00000000
C            4.91208980          11.34398077           0.00000000
C            4.91208980          12.76201077           0.00000000
C            6.14011680          13.47099477           0.00000000
C            8.59617180          10.63499677           0.00000000
C            7.36814480          11.34398077           0.00000000
C            7.36814480          12.76201077           0.00000000
C            8.59617180          13.47099477           0.00000000
C           11.05222680          10.63499677           0.00000000
C            9.82419880          11.34398077           0.00000000
C            9.82419880          12.76201077           0.00000000
C           11.05222680          13.47099477           0.00000000
C           13.50825080          10.63499677           0.00000000
C           12.28022380          11.34398077           0.00000000
C           12.28022380          12.76201077           0.00000000
C           13.50825080          13.47099477           0.00000000
C           15.96430580          10.63499677           0.00000000
C           14.73627780          11.34398077           0.00000000
C           14.73627780          12.76201077           0.00000000
C           15.96430580          13.47099477           0.00000000
C           18.42035980          10.63499677           0.00000000
C           17.19233280          11.34398077           0.00000000
C           17.19233280          12.76201077           0.00000000
C           18.42035980          13.47099477           0.00000000
C           20.87641480          10.63499677           0.00000000
C           19.64838780          11.34398077           0.00000000
C           19.64838780          12.76201077           0.00000000
C           20.87641480          13.47099477           0.00000000
C           22.10444180          11.34398077           0.00000000
C           22.10444180          12.76201077           0.00000000
